
---------- Begin Simulation Statistics ----------
simSeconds                               18446744.073710                       # Number of seconds simulated (Second)
simTicks                                 18446744073709551616                       # Number of ticks simulated (Tick)
finalTick                                18446744073709551616                       # Number of ticks from beginning of simulation (restored from checkpoints and never reset) (Tick)
simFreq                                  1000000000000                       # The number of ticks per simulated second ((Tick/Second))
hostSeconds                                      0.00                       # Real time elapsed on the host (Second)
hostTickRate                             30950912875351592927232                       # The number of ticks simulated per host second (ticks/s) ((Tick/Second))
hostMemory                                     104204                       # Number of bytes of host memory used (Byte)
system.clk_domain.clock                          1000                       # Clock period in ticks (Tick)
system.clk_domain.voltage_domain.voltage            1                       # Voltage in Volts (Volt)
system.workload.inst.arm                            0                       # number of arm instructions executed (Count)
system.workload.inst.quiesce                        0                       # number of quiesce instructions executed (Count)

---------- End Simulation Statistics   ----------
